simulator lang=spectre
library Foundry_X

section nominal
endsection nominal

section statistical
endsection statistical

section corner_1
endsection corner_1

section corner_2
endsection corner_2

